
/ -------------------------------------------------------------------
&HEAD   CHID    ='fdsreader_slcfs',
        TITLE   ='' /
/ -------------------------------------------------------------------
/ Mesh
/ -------------------------------------------------------------------
/ Mesh size - dx = 0.1
&MESH   ID      ='MESH_1',
        IJK     = 40, 40, 40,
        XB      = 0.0, 1.0, 0.0, 1.0, 0.0, 1.0 /


/ -------------------------------------------------------------------
/ simulation time
/ -------------------------------------------------------------------
&TIME   T_BEGIN =   0.0,
        T_END   = 300.0 /
/ -------------------------------------------------------------------
/ boundary conditions
/ -------------------------------------------------------------------
&VENT   MB ='XMIN', SURF_ID='OPEN' /
&VENT   MB ='XMAX', SURF_ID='OPEN' /
&VENT   MB ='YMIN', SURF_ID='OPEN' /
&VENT   MB ='YMAX', SURF_ID='OPEN' /
&VENT   MB ='ZMIN', SURF_ID='OPEN' /
&VENT   MB ='ZMAX', SURF_ID='OPEN' /

&DUMP   DT_HRR      =  1.0,
        DT_SLCF     = 10.0,
        DT_DEVC     = 10.0,
        DT_CTRL     = 10.0,
        DT_PART     = 10.0,
        DT_BNDF     = 30.0,
        DT_SMOKE3D  =  1.0,
        VELOCITY_ERROR_FILE = .FALSE.,
        MASS_FILE           = .FALSE. /

/ -------------------------------------------------------------------
/ fire - reaction
/ -------------------------------------------------------------------
&REAC ID                 = 'METHANE' /

/ fire - area
/ -------------------------------------------------------------------
&SURF ID        = 'fire',
      COLOR     = 'RED',
      HRRPUA    =  300.0,
      RAMP_Q    = 'fire-ramp' /

&RAMP ID='fire-ramp', T=    0.00, F=0.00 /
&RAMP ID='fire-ramp', T=   30.00, F=1.00 /


&OBST XB=0.4,0.53,0.5,0.5,0.0,0.1, SURF_ID='fire' / ! Horizontal (0°)
&OBST XB=0.43,0.5,0.57,0.5,0.0,0.1, SURF_ID='fire' / ! Diagonal (45°)
&OBST XB=0.5,0.5,0.4,0.53,0.0,0.1, SURF_ID='fire' / ! Vertical (90°)
&OBST XB=0.43,0.5,0.43,0.5,0.0,0.1, SURF_ID='fire' / ! Diagonal (135°)
&OBST XB=0.6,0.47,0.5,0.5,0.0,0.1, SURF_ID='fire' / ! Horizontal (180°)
&OBST XB=0.57,0.5,0.43,0.5,0.0,0.1, SURF_ID='fire' / ! Diagonal (225°)
&OBST XB=0.5,0.5,0.57,0.47,0.0,0.1, SURF_ID='fire' / ! Vertical (270°)
&OBST XB=0.57,0.5,0.57,0.5,0.0,0.1, SURF_ID='fire' / ! Diagonal (315°)
/ -------------------------------------------------------------------
/ quantities
/ -------------------------------------------------------------------
/ Animated Planar Slices - SLCF
/ -----------------------------
&SLCF PBY= 0.5, QUANTITY='TEMPERATURE' /
&SLCF PBY= 0.5, QUANTITY='TEMPERATURE' , CELL_CENTERED=.TRUE./

&TAIL /
